*Heading
** Job name: 6mhnch_nofondtn_2 Model name: Model-1
** Generated by: Abaqus/CAE 2020
*Preprint, echo=NO, model=NO, history=NO, contact=NO
**
** PARTS
**
*Part, name=soil
*Node
      1,   10.7677498,           3.
      2,          20.,           6.
      3,   1.53550005,           6.
      4,          20.,           0.
      5,   1.53550005,           0.
      6,   2.06439996,           3.
      7,   11.0562582,      3.09375
      8,   11.3447657,       3.1875
      9,   11.6332731,      3.28125
     10,   11.9217815,        3.375
     11,    12.210289,      3.46875
     12,   12.4987965,       3.5625
     13,   12.7873049,      3.65625
     14,   13.0758123,         3.75
     15,   13.3643208,      3.84375
     16,   13.6528282,       3.9375
     17,   13.9413357,      4.03125
     18,   14.2298441,        4.125
     19,   14.5183516,      4.21875
     20,    14.806859,       4.3125
** ... 1391 like lines cut
*Element, type=CPS3
  1, 413, 129, 403
  2, 514, 297, 413
  3, 520, 305, 471
  4, 534, 480, 508
  5, 367,  75,  76
  6, 394,  77, 393
  7, 393, 381, 338
  8, 381,  78,  79
  9, 455, 381, 392
 10, 503, 472, 339
 11, 414, 117, 412
 12, 439, 437, 409
 13, 409, 118, 119
 14, 415, 409, 119
 15, 485, 476, 439
 16, 474, 337, 433
 17, 539, 504, 476
 18, 472, 338, 455
 19, 352,  62,  63
 20, 478, 329, 459
** ... 2636 like lines cut
*Nset, nset=Set-1, generate
    1,  1411,     1
*Elset, elset=Set-1, generate
    1,  2656,     1
** Section: s
*Solid Section, elset=Set-1, material=backfill
,
*End Part
**  
*Part, name=wall
*Node
      1,   1.53550005,           6.
      2,           0.,           0.
      3,   1.53550005,           0.
      4,   2.06439996,           3.
      5,           0.,           6.
      6,   1.46238101,   5.71428585
      7,   1.38926196,   5.42857122
      8,   1.31614292,   5.14285707
      9,   1.24302375,   4.85714293
     10,   1.16990471,   4.57142878
     11,   1.09678566,   4.28571415
     12,   1.02366662,           4.
     13,  0.950547636,   3.71428561
     14,  0.877428591,   3.42857146
     15,  0.804309547,   3.14285707
     16,  0.731190503,   2.85714293
     17,  0.658071458,   2.57142854
     18,  0.584952354,   2.28571439
     19,   0.51183331,           2.
     20,  0.438714296,   1.71428573
** ... 145 like lines cut
*Element, type=CPS3
  1,  47,   6,   7
  2,  94,  34,  93
  3,  25,   2,  26
  4,  81,  25,  26
  5, 100,  81,  27
  6, 115, 101,  90
  7,  80,  74,  21
  8,  80,  22,  71
  9,  79,  20,  74
 10,  96,  36,  89
 11,  82,  18,  75
 12,  95,  89,  37
 13,  83,  16,  76
 14, 106,  87,  92
 15,  92,  40,  91
 16,  84,  14,  77
 17,  78,  72,  12
 18, 113,  73,  72
 19,  73,  10,  11
 20,  86,   9,  10
** ... 258 like lines cut
*Nset, nset=Set-1, generate
   1,  165,    1
*Elset, elset=Set-1, generate
   1,  278,    1
** Section: w
*Solid Section, elset=Set-1, material=conc
,
*End Part
**  
**
** ASSEMBLY
**
*Assembly, name=Assembly
**  
*Instance, name=soil-1, part=soil
*End Instance
**  
*Instance, name=wall-1, part=wall
*End Instance
**  
*Instance, name=soil-2, part=soil
*End Instance
**  
*Instance, name=wall-2, part=wall
*End Instance
**  
*Instance, name=soil-3, part=soil
*End Instance
**  
*Instance, name=wall-3, part=wall
*End Instance
**  
*Nset, nset=Set-1, instance=soil-1
   2,   4, 161, 162, 163, 164, 165, 166, 167, 168, 169, 170, 171, 172, 173, 174
 175, 176, 177, 178, 179
*Nset, nset=Set-1, instance=wall-1
  3,  4, 30, 31, 32, 33, 34, 35, 36, 37, 38
*Elset, elset=Set-1, instance=soil-1
 691, 692, 693, 702, 744, 746, 748, 750, 752, 754, 756, 758, 760, 762, 764, 766
 768, 772, 901, 939
*Elset, elset=Set-1, instance=wall-1
  23,  79,  80,  81,  82,  84,  89,  90,  92, 131
*Nset, nset=Set-2, instance=soil-1
  2,  3, 38, 39, 40, 41, 42, 43, 44, 45, 46, 47, 48, 49, 50, 51
 52, 53, 54, 55, 56, 57, 58, 59, 60, 61, 62, 63, 64, 65, 66, 67
 68, 69, 70, 71, 72, 73, 74, 75, 76, 77, 78, 79, 80, 81, 82, 83
 84, 85, 86, 87, 88, 89, 90, 91, 92, 93, 94, 95, 96, 97, 98
*Elset, elset=Set-2, instance=soil-1
   5,   8,  19,  27,  29,  47,  49,  55,  64,  70,  74,  83,  92,  97, 102, 107
 119, 120, 121, 182, 183, 184, 185, 188, 189, 190, 191, 198, 203, 204, 205, 206
 207, 213, 214, 215, 247, 256, 261, 263, 265, 267, 273, 275, 278, 283, 286, 288
 290, 292, 306, 311, 316, 328, 330, 332, 334, 336, 341, 344, 345, 347
*Elset, elset=_m_Surf-1_S1, internal, instance=wall-1, generate
 36,  38,   1
*Elset, elset=_m_Surf-1_S2, internal, instance=wall-1
  39,  49,  77,  85,  88,  99, 129
*Surface, type=ELEMENT, name=m_Surf-1
_m_Surf-1_S1, S1
_m_Surf-1_S2, S2
*Elset, elset=_s_Surf-1_S2, internal, instance=soil-1
 1359, 1448, 1452, 1454, 1567, 1569, 1670, 1675, 1679
*Elset, elset=_s_Surf-1_S1, internal, instance=soil-1
 1430,
*Surface, type=ELEMENT, name=s_Surf-1
_s_Surf-1_S2, S2
_s_Surf-1_S1, S1
*End Assembly
** 
** MATERIALS
** 
*Material, name=backfill
*Density
1700.,
*Material, name=conc
*Density
2500.,
** 
** INTERACTION PROPERTIES
** 
*Surface Interaction, name=IntProp-1
1.,
*Friction
0.,
** 
** BOUNDARY CONDITIONS
** 
** Name: BC-1 Type: Displacement/Rotation
*Boundary
Set-1, 1, 1
Set-1, 2, 2
** Name: BC-2 Type: Displacement/Rotation
*Boundary
Set-2, 1, 1
** 
** INTERACTIONS
** 
** Interaction: Int-1
*Contact Pair, interaction=IntProp-1, type=SURFACE TO SURFACE
s_Surf-1, m_Surf-1
** ----------------------------------------------------------------
** 
** STEP: grav
** 
*Step, name=grav, nlgeom=NO
*Static
1., 1., 1e-05, 1.
** 
** LOADS
** 
** Name: Load-1   Type: Gravity
*Dload
, GRAV, 9., 0., -1.
** 
** OUTPUT REQUESTS
** 
*Restart, write, frequency=0
** 
** FIELD OUTPUT: F-Output-1
** 
*Output, field, variable=PRESELECT
** 
** HISTORY OUTPUT: H-Output-1
** 
*Output, history, variable=PRESELECT
*End Step
